data/smartds/2018/GSO/rural/scenarios/base_timeseries/opendss/rhs2_1247/rhs2_1247--rdt1262/Loads.dss
New Load.load_p1rlv628_1 conn=wye bus1=p1rlv628.1 kV=0.12 Vminpu=0.8 Vmaxpu=1.2 model=1 kW=5.466651771327982 kvar=1.2745975671486984 Phases=1 yearly=res_kw_933_pu

New Load.load_p1rlv628_2 conn=wye bus1=p1rlv628.2 kV=0.12 Vminpu=0.8 Vmaxpu=1.2 model=1 kW=5.466651771327982 kvar=1.2745975671486984 Phases=1 yearly=res_kw_933_pu

New Load.load_p1rlv629_1 conn=wye bus1=p1rlv629.1 kV=0.12 Vminpu=0.8 Vmaxpu=1.2 model=1 kW=5.436729579526792 kvar=1.2488470964899614 Phases=1 yearly=res_kw_454_pu

New Load.load_p1rlv629_2 conn=wye bus1=p1rlv629.2 kV=0.12 Vminpu=0.8 Vmaxpu=1.2 model=1 kW=5.436729579526792 kvar=1.2488470964899614 Phases=1 yearly=res_kw_454_pu

New Load.load_p1rlv630_1 conn=wye bus1=p1rlv630.1 kV=0.12 Vminpu=0.8 Vmaxpu=1.2 model=1 kW=2.916803644387601 kvar=0.11499518252231355 Phases=1 yearly=res_kw_1094_pu

New Load.load_p1rlv630_2 conn=wye bus1=p1rlv630.2 kV=0.12 Vminpu=0.8 Vmaxpu=1.2 model=1 kW=2.916803644387601 kvar=0.11499518252231355 Phases=1 yearly=res_kw_1094_pu

New Load.load_p1rlv631_1 conn=wye bus1=p1rlv631.1 kV=0.12 Vminpu=0.8 Vmaxpu=1.2 model=1 kW=2.5137827263873103 kvar=0.7927782724892762 Phases=1 yearly=res_kw_621_pu

New Load.load_p1rlv631_2 conn=wye bus1=p1rlv631.2 kV=0.12 Vminpu=0.8 Vmaxpu=1.2 model=1 kW=2.5137827263873103 kvar=0.7927782724892762 Phases=1 yearly=res_kw_621_pu

New Load.load_p1rlv632_1 conn=wye bus1=p1rlv632.1 kV=0.12 Vminpu=0.8 Vmaxpu=1.2 model=1 kW=1.07594874218897 kvar=0.4942830176942115 Phases=1 yearly=res_kw_366_pu

New Load.load_p1rlv632_2 conn=wye bus1=p1rlv632.2 kV=0.12 Vminpu=0.8 Vmaxpu=1.2 model=1 kW=1.07594874218897 kvar=0.4942830176942115 Phases=1 yearly=res_kw_366_pu

New Load.load_p1rlv633_1 conn=wye bus1=p1rlv633.1 kV=0.12 Vminpu=0.8 Vmaxpu=1.2 model=1 kW=3.6844020253442458 kvar=1.4451491397155931 Phases=1 yearly=res_kw_1258_pu

New Load.load_p1rlv633_2 conn=wye bus1=p1rlv633.2 kV=0.12 Vminpu=0.8 Vmaxpu=1.2 model=1 kW=3.6844020253442458 kvar=1.4451491397155931 Phases=1 yearly=res_kw_1258_pu

New Load.load_p1rlv634_1 conn=wye bus1=p1rlv634.1 kV=0.12 Vminpu=0.8 Vmaxpu=1.2 model=1 kW=3.629714039262861 kvar=1.2034402112399032 Phases=1 yearly=res_kw_203_pu

New Load.load_p1rlv634_2 conn=wye bus1=p1rlv634.2 kV=0.12 Vminpu=0.8 Vmaxpu=1.2 model=1 kW=3.629714039262861 kvar=1.2034402112399032 Phases=1 yearly=res_kw_203_pu

New Load.load_p1rlv635_1 conn=wye bus1=p1rlv635.1 kV=0.12 Vminpu=0.8 Vmaxpu=1.2 model=1 kW=1.07594874218897 kvar=0.4942830176942115 Phases=1 yearly=res_kw_366_pu

New Load.load_p1rlv635_2 conn=wye bus1=p1rlv635.2 kV=0.12 Vminpu=0.8 Vmaxpu=1.2 model=1 kW=1.07594874218897 kvar=0.4942830176942115 Phases=1 yearly=res_kw_366_pu

New Load.load_p1rlv1459_1 conn=wye bus1=p1rlv1459.1 kV=0.12 Vminpu=0.8 Vmaxpu=1.2 model=1 kW=5.286987923172412 kvar=0.912918656895422 Phases=1 yearly=res_kw_75_pu

New Load.load_p1rlv1459_2 conn=wye bus1=p1rlv1459.2 kV=0.12 Vminpu=0.8 Vmaxpu=1.2 model=1 kW=5.286987923172412 kvar=0.912918656895422 Phases=1 yearly=res_kw_75_pu

New Load.load_p1rlv1460_1 conn=wye bus1=p1rlv1460.1 kV=0.12 Vminpu=0.8 Vmaxpu=1.2 model=1 kW=3.6844020253442458 kvar=1.4451491397155931 Phases=1 yearly=res_kw_1258_pu

New Load.load_p1rlv1460_2 conn=wye bus1=p1rlv1460.2 kV=0.12 Vminpu=0.8 Vmaxpu=1.2 model=1 kW=3.6844020253442458 kvar=1.4451491397155931 Phases=1 yearly=res_kw_1258_pu

New Load.load_p1rlv1461_1 conn=wye bus1=p1rlv1461.1 kV=0.12 Vminpu=0.8 Vmaxpu=1.2 model=1 kW=4.198936522204728 kvar=0.9501139000968819 Phases=1 yearly=res_kw_229_pu

New Load.load_p1rlv1461_2 conn=wye bus1=p1rlv1461.2 kV=0.12 Vminpu=0.8 Vmaxpu=1.2 model=1 kW=4.198936522204728 kvar=0.9501139000968819 Phases=1 yearly=res_kw_229_pu

New Load.load_p1rlv1462_1 conn=wye bus1=p1rlv1462.1 kV=0.12 Vminpu=0.8 Vmaxpu=1.2 model=1 kW=4.081735511976485 kvar=0.9882394625849078 Phases=1 yearly=com_kw_14650_pu

New Load.load_p1rlv1462_2 conn=wye bus1=p1rlv1462.2 kV=0.12 Vminpu=0.8 Vmaxpu=1.2 model=1 kW=4.081735511976485 kvar=0.9882394625849078 Phases=1 yearly=com_kw_14650_pu

New Load.load_p1rlv1463 conn=wye bus1=p1rlv1463.1.2.3 kV=0.48 Vminpu=0.8 Vmaxpu=1.2 model=1 kW=17.526104810945753 kvar=4.553692350696916 Phases=3 yearly=com_kw_14032_pu

New Load.load_p1rlv1464_1 conn=wye bus1=p1rlv1464.1 kV=0.12 Vminpu=0.8 Vmaxpu=1.2 model=1 kW=4.359410160991208 kvar=0.7703346328307125 Phases=1 yearly=res_kw_470_pu

New Load.load_p1rlv1464_2 conn=wye bus1=p1rlv1464.2 kV=0.12 Vminpu=0.8 Vmaxpu=1.2 model=1 kW=4.359410160991208 kvar=0.7703346328307125 Phases=1 yearly=res_kw_470_pu

New Load.load_p1rlv1465_1 conn=wye bus1=p1rlv1465.1 kV=0.12 Vminpu=0.8 Vmaxpu=1.2 model=1 kW=1.8801200674575587 kvar=0.53962653273889 Phases=1 yearly=com_kw_13578_pu

New Load.load_p1rlv1465_2 conn=wye bus1=p1rlv1465.2 kV=0.12 Vminpu=0.8 Vmaxpu=1.2 model=1 kW=1.8801200674575587 kvar=0.53962653273889 Phases=1 yearly=com_kw_13578_pu

New Load.load_p1rlv1466_1 conn=wye bus1=p1rlv1466.1 kV=0.12 Vminpu=0.8 Vmaxpu=1.2 model=1 kW=7.088530083600876 kvar=2.6134476319600712 Phases=1 yearly=res_kw_267_pu

New Load.load_p1rlv1466_2 conn=wye bus1=p1rlv1466.2 kV=0.12 Vminpu=0.8 Vmaxpu=1.2 model=1 kW=7.088530083600876 kvar=2.6134476319600712 Phases=1 yearly=res_kw_267_pu

New Load.load_p1rlv1467_1 conn=wye bus1=p1rlv1467.1 kV=0.12 Vminpu=0.8 Vmaxpu=1.2 model=1 kW=2.4402285312138985 kvar=0.9342273883677934 Phases=1 yearly=res_kw_409_pu

New Load.load_p1rlv1467_2 conn=wye bus1=p1rlv1467.2 kV=0.12 Vminpu=0.8 Vmaxpu=1.2 model=1 kW=2.4402285312138985 kvar=0.9342273883677934 Phases=1 yearly=res_kw_409_pu

New Load.load_p1rlv1468_1 conn=wye bus1=p1rlv1468.1 kV=0.12 Vminpu=0.8 Vmaxpu=1.2 model=1 kW=3.6844020253442458 kvar=1.4451491397155931 Phases=1 yearly=res_kw_1258_pu

New Load.load_p1rlv1468_2 conn=wye bus1=p1rlv1468.2 kV=0.12 Vminpu=0.8 Vmaxpu=1.2 model=1 kW=3.6844020253442458 kvar=1.4451491397155931 Phases=1 yearly=res_kw_1258_pu

New Load.load_p1rlv1469_1 conn=wye bus1=p1rlv1469.1 kV=0.12 Vminpu=0.8 Vmaxpu=1.2 model=1 kW=2.6241521841182514 kvar=0.8429304779950015 Phases=1 yearly=res_kw_33_pu

New Load.load_p1rlv1469_2 conn=wye bus1=p1rlv1469.2 kV=0.12 Vminpu=0.8 Vmaxpu=1.2 model=1 kW=2.6241521841182514 kvar=0.8429304779950015 Phases=1 yearly=res_kw_33_pu

New Load.load_p1rlv1470_1 conn=wye bus1=p1rlv1470.1 kV=0.12 Vminpu=0.8 Vmaxpu=1.2 model=1 kW=10.375628907780863 kvar=4.616486224330442 Phases=1 yearly=res_kw_1267_pu

New Load.load_p1rlv1470_2 conn=wye bus1=p1rlv1470.2 kV=0.12 Vminpu=0.8 Vmaxpu=1.2 model=1 kW=10.375628907780863 kvar=4.616486224330442 Phases=1 yearly=res_kw_1267_pu

New Load.load_p1rlv1471_1 conn=wye bus1=p1rlv1471.1 kV=0.12 Vminpu=0.8 Vmaxpu=1.2 model=1 kW=2.4402285312138985 kvar=0.9342273883677934 Phases=1 yearly=res_kw_409_pu

New Load.load_p1rlv1471_2 conn=wye bus1=p1rlv1471.2 kV=0.12 Vminpu=0.8 Vmaxpu=1.2 model=1 kW=2.4402285312138985 kvar=0.9342273883677934 Phases=1 yearly=res_kw_409_pu

New Load.load_p1rlv1472_1 conn=wye bus1=p1rlv1472.1 kV=0.12 Vminpu=0.8 Vmaxpu=1.2 model=1 kW=3.3641909207712115 kvar=0.9284266244461494 Phases=1 yearly=res_kw_523_pu

New Load.load_p1rlv1472_2 conn=wye bus1=p1rlv1472.2 kV=0.12 Vminpu=0.8 Vmaxpu=1.2 model=1 kW=3.3641909207712115 kvar=0.9284266244461494 Phases=1 yearly=res_kw_523_pu

New Load.load_p1rlv1473_1 conn=wye bus1=p1rlv1473.1 kV=0.12 Vminpu=0.8 Vmaxpu=1.2 model=1 kW=4.8861141847383 kvar=1.2417687859549835 Phases=1 yearly=res_kw_549_pu

New Load.load_p1rlv1473_2 conn=wye bus1=p1rlv1473.2 kV=0.12 Vminpu=0.8 Vmaxpu=1.2 model=1 kW=4.8861141847383 kvar=1.2417687859549835 Phases=1 yearly=res_kw_549_pu

New Load.load_p1rlv1474_1 conn=wye bus1=p1rlv1474.1 kV=0.12 Vminpu=0.8 Vmaxpu=1.2 model=1 kW=4.7264639008757365 kvar=1.36553634213978 Phases=1 yearly=res_kw_1220_pu

New Load.load_p1rlv1474_2 conn=wye bus1=p1rlv1474.2 kV=0.12 Vminpu=0.8 Vmaxpu=1.2 model=1 kW=4.7264639008757365 kvar=1.36553634213978 Phases=1 yearly=res_kw_1220_pu

New Load.load_p1rlv1475_1 conn=wye bus1=p1rlv1475.1 kV=0.12 Vminpu=0.8 Vmaxpu=1.2 model=1 kW=3.9548467392187407 kvar=0.784873407244747 Phases=1 yearly=res_kw_47_pu

New Load.load_p1rlv1475_2 conn=wye bus1=p1rlv1475.2 kV=0.12 Vminpu=0.8 Vmaxpu=1.2 model=1 kW=3.9548467392187407 kvar=0.784873407244747 Phases=1 yearly=res_kw_47_pu

New Load.load_p1rlv1476_1 conn=wye bus1=p1rlv1476.1 kV=0.12 Vminpu=0.8 Vmaxpu=1.2 model=1 kW=5.6593015111322105 kvar=1.2761251920573724 Phases=1 yearly=res_kw_324_pu

New Load.load_p1rlv1476_2 conn=wye bus1=p1rlv1476.2 kV=0.12 Vminpu=0.8 Vmaxpu=1.2 model=1 kW=5.6593015111322105 kvar=1.2761251920573724 Phases=1 yearly=res_kw_324_pu

New Load.load_p1rlv1477_1 conn=wye bus1=p1rlv1477.1 kV=0.12 Vminpu=0.8 Vmaxpu=1.2 model=1 kW=2.8808589162778904 kvar=0.2835073949750637 Phases=1 yearly=res_kw_1036_pu

New Load.load_p1rlv1477_2 conn=wye bus1=p1rlv1477.2 kV=0.12 Vminpu=0.8 Vmaxpu=1.2 model=1 kW=2.8808589162778904 kvar=0.2835073949750637 Phases=1 yearly=res_kw_1036_pu

New Load.load_p1rlv1478_1 conn=wye bus1=p1rlv1478.1 kV=0.12 Vminpu=0.8 Vmaxpu=1.2 model=1 kW=2.40000228705824 kvar=1.0173787262529668 Phases=1 yearly=res_kw_1205_pu

New Load.load_p1rlv1478_2 conn=wye bus1=p1rlv1478.2 kV=0.12 Vminpu=0.8 Vmaxpu=1.2 model=1 kW=2.40000228705824 kvar=1.0173787262529668 Phases=1 yearly=res_kw_1205_pu

New Load.load_p1rlv1479_1 conn=wye bus1=p1rlv1479.1 kV=0.12 Vminpu=0.8 Vmaxpu=1.2 model=1 kW=4.4719654544990375 kvar=1.0992469987144322 Phases=1 yearly=res_kw_1157_pu

New Load.load_p1rlv1479_2 conn=wye bus1=p1rlv1479.2 kV=0.12 Vminpu=0.8 Vmaxpu=1.2 model=1 kW=4.4719654544990375 kvar=1.0992469987144322 Phases=1 yearly=res_kw_1157_pu

New Load.load_p1rlv1480_1 conn=wye bus1=p1rlv1480.1 kV=0.12 Vminpu=0.8 Vmaxpu=1.2 model=1 kW=6.224817813202313 kvar=1.7553010009693135 Phases=1 yearly=res_kw_710_pu

New Load.load_p1rlv1480_2 conn=wye bus1=p1rlv1480.2 kV=0.12 Vminpu=0.8 Vmaxpu=1.2 model=1 kW=6.224817813202313 kvar=1.7553010009693135 Phases=1 yearly=res_kw_710_pu

New Load.load_p1rlv1481_1 conn=wye bus1=p1rlv1481.1 kV=0.12 Vminpu=0.8 Vmaxpu=1.2 model=1 kW=2.40000228705824 kvar=1.0173787262529668 Phases=1 yearly=res_kw_1205_pu

New Load.load_p1rlv1481_2 conn=wye bus1=p1rlv1481.2 kV=0.12 Vminpu=0.8 Vmaxpu=1.2 model=1 kW=2.40000228705824 kvar=1.0173787262529668 Phases=1 yearly=res_kw_1205_pu

New Load.load_p1rlv1482_1 conn=wye bus1=p1rlv1482.1 kV=0.12 Vminpu=0.8 Vmaxpu=1.2 model=1 kW=2.6241521841182514 kvar=0.8429304779950015 Phases=1 yearly=res_kw_33_pu

New Load.load_p1rlv1482_2 conn=wye bus1=p1rlv1482.2 kV=0.12 Vminpu=0.8 Vmaxpu=1.2 model=1 kW=2.6241521841182514 kvar=0.8429304779950015 Phases=1 yearly=res_kw_33_pu

New Load.load_p1rlv1483_1 conn=wye bus1=p1rlv1483.1 kV=0.12 Vminpu=0.8 Vmaxpu=1.2 model=1 kW=6.391914767972083 kvar=1.3469352347477417 Phases=1 yearly=res_kw_2_pu

New Load.load_p1rlv1483_2 conn=wye bus1=p1rlv1483.2 kV=0.12 Vminpu=0.8 Vmaxpu=1.2 model=1 kW=6.391914767972083 kvar=1.3469352347477417 Phases=1 yearly=res_kw_2_pu

New Load.load_p1rlv1484_1 conn=wye bus1=p1rlv1484.1 kV=0.12 Vminpu=0.8 Vmaxpu=1.2 model=1 kW=10.375628907780863 kvar=4.616486224330442 Phases=1 yearly=res_kw_1267_pu

New Load.load_p1rlv1484_2 conn=wye bus1=p1rlv1484.2 kV=0.12 Vminpu=0.8 Vmaxpu=1.2 model=1 kW=10.375628907780863 kvar=4.616486224330442 Phases=1 yearly=res_kw_1267_pu

New Load.load_p1rlv1485_1 conn=wye bus1=p1rlv1485.1 kV=0.12 Vminpu=0.8 Vmaxpu=1.2 model=1 kW=5.991917116566147 kvar=1.6692124001399427 Phases=1 yearly=res_kw_314_pu

New Load.load_p1rlv1485_2 conn=wye bus1=p1rlv1485.2 kV=0.12 Vminpu=0.8 Vmaxpu=1.2 model=1 kW=5.991917116566147 kvar=1.6692124001399427 Phases=1 yearly=res_kw_314_pu

New Load.load_p1rlv1486_1 conn=wye bus1=p1rlv1486.1 kV=0.12 Vminpu=0.8 Vmaxpu=1.2 model=1 kW=5.436729579526792 kvar=1.2488470964899614 Phases=1 yearly=res_kw_454_pu

New Load.load_p1rlv1486_2 conn=wye bus1=p1rlv1486.2 kV=0.12 Vminpu=0.8 Vmaxpu=1.2 model=1 kW=5.436729579526792 kvar=1.2488470964899614 Phases=1 yearly=res_kw_454_pu

New Load.load_p1rlv1487_1 conn=wye bus1=p1rlv1487.1 kV=0.12 Vminpu=0.8 Vmaxpu=1.2 model=1 kW=5.02113589877799 kvar=1.330838974667839 Phases=1 yearly=res_kw_207_pu

New Load.load_p1rlv1487_2 conn=wye bus1=p1rlv1487.2 kV=0.12 Vminpu=0.8 Vmaxpu=1.2 model=1 kW=5.02113589877799 kvar=1.330838974667839 Phases=1 yearly=res_kw_207_pu

New Load.load_p1rlv1488_1 conn=wye bus1=p1rlv1488.1 kV=0.12 Vminpu=0.8 Vmaxpu=1.2 model=1 kW=1.8801200674575587 kvar=0.53962653273889 Phases=1 yearly=com_kw_13578_pu

New Load.load_p1rlv1488_2 conn=wye bus1=p1rlv1488.2 kV=0.12 Vminpu=0.8 Vmaxpu=1.2 model=1 kW=1.8801200674575587 kvar=0.53962653273889 Phases=1 yearly=com_kw_13578_pu

New Load.load_p1rlv1489_1 conn=wye bus1=p1rlv1489.1 kV=0.12 Vminpu=0.8 Vmaxpu=1.2 model=1 kW=2.40000228705824 kvar=1.0173787262529668 Phases=1 yearly=res_kw_1205_pu

New Load.load_p1rlv1489_2 conn=wye bus1=p1rlv1489.2 kV=0.12 Vminpu=0.8 Vmaxpu=1.2 model=1 kW=2.40000228705824 kvar=1.0173787262529668 Phases=1 yearly=res_kw_1205_pu

New Load.load_p1rlv1490_1 conn=wye bus1=p1rlv1490.1 kV=0.12 Vminpu=0.8 Vmaxpu=1.2 model=1 kW=3.4468581914223817 kvar=1.1411197390818253 Phases=1 yearly=res_kw_250_pu

New Load.load_p1rlv1490_2 conn=wye bus1=p1rlv1490.2 kV=0.12 Vminpu=0.8 Vmaxpu=1.2 model=1 kW=3.4468581914223817 kvar=1.1411197390818253 Phases=1 yearly=res_kw_250_pu

New Load.load_p1rlv1491_1 conn=wye bus1=p1rlv1491.1 kV=0.12 Vminpu=0.8 Vmaxpu=1.2 model=1 kW=2.4402285312138985 kvar=0.9342273883677934 Phases=1 yearly=res_kw_409_pu

New Load.load_p1rlv1491_2 conn=wye bus1=p1rlv1491.2 kV=0.12 Vminpu=0.8 Vmaxpu=1.2 model=1 kW=2.4402285312138985 kvar=0.9342273883677934 Phases=1 yearly=res_kw_409_pu

New Load.load_p1rlv1492_1 conn=wye bus1=p1rlv1492.1 kV=0.12 Vminpu=0.8 Vmaxpu=1.2 model=1 kW=4.273181988238683 kvar=1.110614151275591 Phases=1 yearly=res_kw_1113_pu

New Load.load_p1rlv1492_2 conn=wye bus1=p1rlv1492.2 kV=0.12 Vminpu=0.8 Vmaxpu=1.2 model=1 kW=4.273181988238683 kvar=1.110614151275591 Phases=1 yearly=res_kw_1113_pu

New Load.load_p1rlv1493 conn=wye bus1=p1rlv1493.1.2.3 kV=0.48 Vminpu=0.8 Vmaxpu=1.2 model=1 kW=35.575751352084666 kvar=8.679058106481836 Phases=3 yearly=com_kw_13354_pu

New Load.load_p1rlv1494_1 conn=wye bus1=p1rlv1494.1 kV=0.12 Vminpu=0.8 Vmaxpu=1.2 model=1 kW=2.3448408768561366 kvar=0.6799254266592899 Phases=1 yearly=com_kw_13661_pu

New Load.load_p1rlv1494_2 conn=wye bus1=p1rlv1494.2 kV=0.12 Vminpu=0.8 Vmaxpu=1.2 model=1 kW=2.3448408768561366 kvar=0.6799254266592899 Phases=1 yearly=com_kw_13661_pu

New Load.load_p1rlv1495_1 conn=wye bus1=p1rlv1495.1 kV=0.12 Vminpu=0.8 Vmaxpu=1.2 model=1 kW=4.4719654544990375 kvar=1.0992469987144322 Phases=1 yearly=res_kw_1157_pu

New Load.load_p1rlv1495_2 conn=wye bus1=p1rlv1495.2 kV=0.12 Vminpu=0.8 Vmaxpu=1.2 model=1 kW=4.4719654544990375 kvar=1.0992469987144322 Phases=1 yearly=res_kw_1157_pu

New Load.load_p1rlv1496_1 conn=wye bus1=p1rlv1496.1 kV=0.12 Vminpu=0.8 Vmaxpu=1.2 model=1 kW=0.8155215330625105 kvar=0.30217793028689777 Phases=1 yearly=res_kw_1270_pu

New Load.load_p1rlv1496_2 conn=wye bus1=p1rlv1496.2 kV=0.12 Vminpu=0.8 Vmaxpu=1.2 model=1 kW=0.8155215330625105 kvar=0.30217793028689777 Phases=1 yearly=res_kw_1270_pu

New Load.load_p1rlv1497_1 conn=wye bus1=p1rlv1497.1 kV=0.12 Vminpu=0.8 Vmaxpu=1.2 model=1 kW=3.3641909207712115 kvar=0.9284266244461494 Phases=1 yearly=res_kw_523_pu

New Load.load_p1rlv1497_2 conn=wye bus1=p1rlv1497.2 kV=0.12 Vminpu=0.8 Vmaxpu=1.2 model=1 kW=3.3641909207712115 kvar=0.9284266244461494 Phases=1 yearly=res_kw_523_pu

New Load.load_p1rlv1498_1 conn=wye bus1=p1rlv1498.1 kV=0.12 Vminpu=0.8 Vmaxpu=1.2 model=1 kW=9.666699253995569 kvar=2.090221480167897 Phases=1 yearly=res_kw_46_pu

New Load.load_p1rlv1498_2 conn=wye bus1=p1rlv1498.2 kV=0.12 Vminpu=0.8 Vmaxpu=1.2 model=1 kW=9.666699253995569 kvar=2.090221480167897 Phases=1 yearly=res_kw_46_pu

New Load.load_p1rlv1499_1 conn=wye bus1=p1rlv1499.1 kV=0.12 Vminpu=0.8 Vmaxpu=1.2 model=1 kW=2.40000228705824 kvar=1.0173787262529668 Phases=1 yearly=res_kw_1205_pu

New Load.load_p1rlv1499_2 conn=wye bus1=p1rlv1499.2 kV=0.12 Vminpu=0.8 Vmaxpu=1.2 model=1 kW=2.40000228705824 kvar=1.0173787262529668 Phases=1 yearly=res_kw_1205_pu

New Load.load_p1rlv1500_1 conn=wye bus1=p1rlv1500.1 kV=0.12 Vminpu=0.8 Vmaxpu=1.2 model=1 kW=3.469755020859998 kvar=0.8941520384931253 Phases=1 yearly=res_kw_4_pu

New Load.load_p1rlv1500_2 conn=wye bus1=p1rlv1500.2 kV=0.12 Vminpu=0.8 Vmaxpu=1.2 model=1 kW=3.469755020859998 kvar=0.8941520384931253 Phases=1 yearly=res_kw_4_pu

New Load.load_p1rlv1501_1 conn=wye bus1=p1rlv1501.1 kV=0.12 Vminpu=0.8 Vmaxpu=1.2 model=1 kW=1.07594874218897 kvar=0.4942830176942115 Phases=1 yearly=res_kw_366_pu

New Load.load_p1rlv1501_2 conn=wye bus1=p1rlv1501.2 kV=0.12 Vminpu=0.8 Vmaxpu=1.2 model=1 kW=1.07594874218897 kvar=0.4942830176942115 Phases=1 yearly=res_kw_366_pu

New Load.load_p1rlv1502_1 conn=wye bus1=p1rlv1502.1 kV=0.12 Vminpu=0.8 Vmaxpu=1.2 model=1 kW=3.469755020859998 kvar=0.8941520384931253 Phases=1 yearly=res_kw_4_pu

New Load.load_p1rlv1502_2 conn=wye bus1=p1rlv1502.2 kV=0.12 Vminpu=0.8 Vmaxpu=1.2 model=1 kW=3.469755020859998 kvar=0.8941520384931253 Phases=1 yearly=res_kw_4_pu

New Load.load_p1rlv1503_1 conn=wye bus1=p1rlv1503.1 kV=0.12 Vminpu=0.8 Vmaxpu=1.2 model=1 kW=3.6844020253442458 kvar=1.4451491397155931 Phases=1 yearly=res_kw_1258_pu

New Load.load_p1rlv1503_2 conn=wye bus1=p1rlv1503.2 kV=0.12 Vminpu=0.8 Vmaxpu=1.2 model=1 kW=3.6844020253442458 kvar=1.4451491397155931 Phases=1 yearly=res_kw_1258_pu

New Load.load_p1rlv1504_1 conn=wye bus1=p1rlv1504.1 kV=0.12 Vminpu=0.8 Vmaxpu=1.2 model=1 kW=5.947053638705014 kvar=1.2332751328813323 Phases=1 yearly=res_kw_245_pu

New Load.load_p1rlv1504_2 conn=wye bus1=p1rlv1504.2 kV=0.12 Vminpu=0.8 Vmaxpu=1.2 model=1 kW=5.947053638705014 kvar=1.2332751328813323 Phases=1 yearly=res_kw_245_pu

New Load.load_p1rlv1505_1 conn=wye bus1=p1rlv1505.1 kV=0.12 Vminpu=0.8 Vmaxpu=1.2 model=1 kW=2.1376631749204993 kvar=0.6218033466021168 Phases=1 yearly=res_kw_93_pu

New Load.load_p1rlv1505_2 conn=wye bus1=p1rlv1505.2 kV=0.12 Vminpu=0.8 Vmaxpu=1.2 model=1 kW=2.1376631749204993 kvar=0.6218033466021168 Phases=1 yearly=res_kw_93_pu

New Load.load_p1rlv1506_1 conn=wye bus1=p1rlv1506.1 kV=0.12 Vminpu=0.8 Vmaxpu=1.2 model=1 kW=3.460037762068802 kvar=0.6117019426679855 Phases=1 yearly=res_kw_205_pu

New Load.load_p1rlv1506_2 conn=wye bus1=p1rlv1506.2 kV=0.12 Vminpu=0.8 Vmaxpu=1.2 model=1 kW=3.460037762068802 kvar=0.6117019426679855 Phases=1 yearly=res_kw_205_pu

New Load.load_p1rlv1507_1 conn=wye bus1=p1rlv1507.1 kV=0.12 Vminpu=0.8 Vmaxpu=1.2 model=1 kW=5.6593015111322105 kvar=1.2761251920573724 Phases=1 yearly=res_kw_324_pu

New Load.load_p1rlv1507_2 conn=wye bus1=p1rlv1507.2 kV=0.12 Vminpu=0.8 Vmaxpu=1.2 model=1 kW=5.6593015111322105 kvar=1.2761251920573724 Phases=1 yearly=res_kw_324_pu

New Load.load_p1rlv1508_1 conn=wye bus1=p1rlv1508.1 kV=0.12 Vminpu=0.8 Vmaxpu=1.2 model=1 kW=5.246790054249551 kvar=0.8308813908499331 Phases=1 yearly=res_kw_96_pu

New Load.load_p1rlv1508_2 conn=wye bus1=p1rlv1508.2 kV=0.12 Vminpu=0.8 Vmaxpu=1.2 model=1 kW=5.246790054249551 kvar=0.8308813908499331 Phases=1 yearly=res_kw_96_pu

New Load.load_p1rlv1509_1 conn=wye bus1=p1rlv1509.1 kV=0.12 Vminpu=0.8 Vmaxpu=1.2 model=1 kW=7.088530083600876 kvar=2.6134476319600712 Phases=1 yearly=res_kw_267_pu

New Load.load_p1rlv1509_2 conn=wye bus1=p1rlv1509.2 kV=0.12 Vminpu=0.8 Vmaxpu=1.2 model=1 kW=7.088530083600876 kvar=2.6134476319600712 Phases=1 yearly=res_kw_267_pu

New Load.load_p1rlv1510_1 conn=wye bus1=p1rlv1510.1 kV=0.12 Vminpu=0.8 Vmaxpu=1.2 model=1 kW=6.702223593657906 kvar=1.4906391030592414 Phases=1 yearly=res_kw_199_pu

New Load.load_p1rlv1510_2 conn=wye bus1=p1rlv1510.2 kV=0.12 Vminpu=0.8 Vmaxpu=1.2 model=1 kW=6.702223593657906 kvar=1.4906391030592414 Phases=1 yearly=res_kw_199_pu

New Load.load_p1rlv1511_1 conn=wye bus1=p1rlv1511.1 kV=0.12 Vminpu=0.8 Vmaxpu=1.2 model=1 kW=6.326714615561071 kvar=1.6676010778457313 Phases=1 yearly=res_kw_7_pu

New Load.load_p1rlv1511_2 conn=wye bus1=p1rlv1511.2 kV=0.12 Vminpu=0.8 Vmaxpu=1.2 model=1 kW=6.326714615561071 kvar=1.6676010778457313 Phases=1 yearly=res_kw_7_pu

New Load.load_p1rlv1512_1 conn=wye bus1=p1rlv1512.1 kV=0.12 Vminpu=0.8 Vmaxpu=1.2 model=1 kW=3.8748715750127736 kvar=1.5614372175332516 Phases=1 yearly=res_kw_517_pu

New Load.load_p1rlv1512_2 conn=wye bus1=p1rlv1512.2 kV=0.12 Vminpu=0.8 Vmaxpu=1.2 model=1 kW=3.8748715750127736 kvar=1.5614372175332516 Phases=1 yearly=res_kw_517_pu

New Load.load_p1rlv1513_1 conn=wye bus1=p1rlv1513.1 kV=0.12 Vminpu=0.8 Vmaxpu=1.2 model=1 kW=4.615759315917863 kvar=1.2136246618425777 Phases=1 yearly=res_kw_1190_pu

New Load.load_p1rlv1513_2 conn=wye bus1=p1rlv1513.2 kV=0.12 Vminpu=0.8 Vmaxpu=1.2 model=1 kW=4.615759315917863 kvar=1.2136246618425777 Phases=1 yearly=res_kw_1190_pu

New Load.load_p1rlv1514_1 conn=wye bus1=p1rlv1514.1 kV=0.12 Vminpu=0.8 Vmaxpu=1.2 model=1 kW=3.8029744718879392 kvar=1.1462670306842289 Phases=1 yearly=res_kw_263_pu

New Load.load_p1rlv1514_2 conn=wye bus1=p1rlv1514.2 kV=0.12 Vminpu=0.8 Vmaxpu=1.2 model=1 kW=3.8029744718879392 kvar=1.1462670306842289 Phases=1 yearly=res_kw_263_pu

New Load.load_p1rlv1515_1 conn=wye bus1=p1rlv1515.1 kV=0.12 Vminpu=0.8 Vmaxpu=1.2 model=1 kW=2.40000228705824 kvar=1.0173787262529668 Phases=1 yearly=res_kw_1205_pu

New Load.load_p1rlv1515_2 conn=wye bus1=p1rlv1515.2 kV=0.12 Vminpu=0.8 Vmaxpu=1.2 model=1 kW=2.40000228705824 kvar=1.0173787262529668 Phases=1 yearly=res_kw_1205_pu

New Load.load_p1rlv1516_1 conn=wye bus1=p1rlv1516.1 kV=0.12 Vminpu=0.8 Vmaxpu=1.2 model=1 kW=3.629714039262861 kvar=1.2034402112399032 Phases=1 yearly=res_kw_203_pu

New Load.load_p1rlv1516_2 conn=wye bus1=p1rlv1516.2 kV=0.12 Vminpu=0.8 Vmaxpu=1.2 model=1 kW=3.629714039262861 kvar=1.2034402112399032 Phases=1 yearly=res_kw_203_pu

New Load.load_p1rlv1517_1 conn=wye bus1=p1rlv1517.1 kV=0.12 Vminpu=0.8 Vmaxpu=1.2 model=1 kW=1.6746299650392789 kvar=0.594727774010976 Phases=1 yearly=res_kw_1276_pu

New Load.load_p1rlv1517_2 conn=wye bus1=p1rlv1517.2 kV=0.12 Vminpu=0.8 Vmaxpu=1.2 model=1 kW=1.6746299650392789 kvar=0.594727774010976 Phases=1 yearly=res_kw_1276_pu

New Load.load_p1rlv1518_1 conn=wye bus1=p1rlv1518.1 kV=0.12 Vminpu=0.8 Vmaxpu=1.2 model=1 kW=3.8748715750127736 kvar=1.5614372175332516 Phases=1 yearly=res_kw_517_pu

New Load.load_p1rlv1518_2 conn=wye bus1=p1rlv1518.2 kV=0.12 Vminpu=0.8 Vmaxpu=1.2 model=1 kW=3.8748715750127736 kvar=1.5614372175332516 Phases=1 yearly=res_kw_517_pu

New Load.load_p1rlv1519_1 conn=wye bus1=p1rlv1519.1 kV=0.12 Vminpu=0.8 Vmaxpu=1.2 model=1 kW=1.8914832317680952 kvar=0.4701288429802831 Phases=1 yearly=com_kw_13018_pu

New Load.load_p1rlv1519_2 conn=wye bus1=p1rlv1519.2 kV=0.12 Vminpu=0.8 Vmaxpu=1.2 model=1 kW=1.8914832317680952 kvar=0.4701288429802831 Phases=1 yearly=com_kw_13018_pu

New Load.load_p1rlv1520_1 conn=wye bus1=p1rlv1520.1 kV=0.12 Vminpu=0.8 Vmaxpu=1.2 model=1 kW=3.9060227283575606 kvar=0.8578020352767629 Phases=1 yearly=res_kw_278_pu

New Load.load_p1rlv1520_2 conn=wye bus1=p1rlv1520.2 kV=0.12 Vminpu=0.8 Vmaxpu=1.2 model=1 kW=3.9060227283575606 kvar=0.8578020352767629 Phases=1 yearly=res_kw_278_pu

New Load.load_p1rlv1521_1 conn=wye bus1=p1rlv1521.1 kV=0.12 Vminpu=0.8 Vmaxpu=1.2 model=1 kW=2.40000228705824 kvar=1.0173787262529668 Phases=1 yearly=res_kw_1205_pu

New Load.load_p1rlv1521_2 conn=wye bus1=p1rlv1521.2 kV=0.12 Vminpu=0.8 Vmaxpu=1.2 model=1 kW=2.40000228705824 kvar=1.0173787262529668 Phases=1 yearly=res_kw_1205_pu

New Load.load_p1rlv1522_1 conn=wye bus1=p1rlv1522.1 kV=0.12 Vminpu=0.8 Vmaxpu=1.2 model=1 kW=11.519913645766726 kvar=1.865620446374389 Phases=1 yearly=res_kw_754_pu

New Load.load_p1rlv1522_2 conn=wye bus1=p1rlv1522.2 kV=0.12 Vminpu=0.8 Vmaxpu=1.2 model=1 kW=11.519913645766726 kvar=1.865620446374389 Phases=1 yearly=res_kw_754_pu

New Load.load_p1rlv1523_1 conn=wye bus1=p1rlv1523.1 kV=0.12 Vminpu=0.8 Vmaxpu=1.2 model=1 kW=3.789884331965197 kvar=1.0036576715582408 Phases=1 yearly=res_kw_670_pu

New Load.load_p1rlv1523_2 conn=wye bus1=p1rlv1523.2 kV=0.12 Vminpu=0.8 Vmaxpu=1.2 model=1 kW=3.789884331965197 kvar=1.0036576715582408 Phases=1 yearly=res_kw_670_pu

New Load.load_p1rlv1524_1 conn=wye bus1=p1rlv1524.1 kV=0.12 Vminpu=0.8 Vmaxpu=1.2 model=1 kW=1.8914832317680952 kvar=0.4701288429802831 Phases=1 yearly=com_kw_13018_pu

New Load.load_p1rlv1524_2 conn=wye bus1=p1rlv1524.2 kV=0.12 Vminpu=0.8 Vmaxpu=1.2 model=1 kW=1.8914832317680952 kvar=0.4701288429802831 Phases=1 yearly=com_kw_13018_pu

New Load.load_p1rlv1525_1 conn=wye bus1=p1rlv1525.1 kV=0.12 Vminpu=0.8 Vmaxpu=1.2 model=1 kW=5.1496269559453545 kvar=1.5323145223091108 Phases=1 yearly=com_kw_14231_pu

New Load.load_p1rlv1525_2 conn=wye bus1=p1rlv1525.2 kV=0.12 Vminpu=0.8 Vmaxpu=1.2 model=1 kW=5.1496269559453545 kvar=1.5323145223091108 Phases=1 yearly=com_kw_14231_pu

New Load.load_p1rlv1526_1 conn=wye bus1=p1rlv1526.1 kV=0.12 Vminpu=0.8 Vmaxpu=1.2 model=1 kW=3.013000258801837 kvar=0.6644912672412583 Phases=1 yearly=com_kw_13887_pu

New Load.load_p1rlv1526_2 conn=wye bus1=p1rlv1526.2 kV=0.12 Vminpu=0.8 Vmaxpu=1.2 model=1 kW=3.013000258801837 kvar=0.6644912672412583 Phases=1 yearly=com_kw_13887_pu

New Load.load_p1rlv1527_1 conn=wye bus1=p1rlv1527.1 kV=0.12 Vminpu=0.8 Vmaxpu=1.2 model=1 kW=4.737995147424034 kvar=0.27793880247771546 Phases=1 yearly=com_kw_14277_pu

New Load.load_p1rlv1527_2 conn=wye bus1=p1rlv1527.2 kV=0.12 Vminpu=0.8 Vmaxpu=1.2 model=1 kW=4.737995147424034 kvar=0.27793880247771546 Phases=1 yearly=com_kw_14277_pu

New Load.load_p1rlv1528_1 conn=wye bus1=p1rlv1528.1 kV=0.12 Vminpu=0.8 Vmaxpu=1.2 model=1 kW=3.789884331965197 kvar=1.0036576715582408 Phases=1 yearly=res_kw_670_pu

New Load.load_p1rlv1528_2 conn=wye bus1=p1rlv1528.2 kV=0.12 Vminpu=0.8 Vmaxpu=1.2 model=1 kW=3.789884331965197 kvar=1.0036576715582408 Phases=1 yearly=res_kw_670_pu

New Load.load_p1rlv1529_1 conn=wye bus1=p1rlv1529.1 kV=0.12 Vminpu=0.8 Vmaxpu=1.2 model=1 kW=5.1496269559453545 kvar=1.5323145223091108 Phases=1 yearly=com_kw_14231_pu

New Load.load_p1rlv1529_2 conn=wye bus1=p1rlv1529.2 kV=0.12 Vminpu=0.8 Vmaxpu=1.2 model=1 kW=5.1496269559453545 kvar=1.5323145223091108 Phases=1 yearly=com_kw_14231_pu

New Load.load_p1rlv1530_1 conn=wye bus1=p1rlv1530.1 kV=0.12 Vminpu=0.8 Vmaxpu=1.2 model=1 kW=2.242446440461792 kvar=0.599196925582727 Phases=1 yearly=com_kw_14904_pu

New Load.load_p1rlv1530_2 conn=wye bus1=p1rlv1530.2 kV=0.12 Vminpu=0.8 Vmaxpu=1.2 model=1 kW=2.242446440461792 kvar=0.599196925582727 Phases=1 yearly=com_kw_14904_pu

New Load.load_p1rlv1531_1 conn=wye bus1=p1rlv1531.1 kV=0.12 Vminpu=0.8 Vmaxpu=1.2 model=1 kW=3.629714039262861 kvar=1.2034402112399032 Phases=1 yearly=res_kw_203_pu

New Load.load_p1rlv1531_2 conn=wye bus1=p1rlv1531.2 kV=0.12 Vminpu=0.8 Vmaxpu=1.2 model=1 kW=3.629714039262861 kvar=1.2034402112399032 Phases=1 yearly=res_kw_203_pu

New Load.load_p1rlv1532_1 conn=wye bus1=p1rlv1532.1 kV=0.12 Vminpu=0.8 Vmaxpu=1.2 model=1 kW=7.259772519581312 kvar=1.3210086815250959 Phases=1 yearly=res_kw_128_pu

New Load.load_p1rlv1532_2 conn=wye bus1=p1rlv1532.2 kV=0.12 Vminpu=0.8 Vmaxpu=1.2 model=1 kW=7.259772519581312 kvar=1.3210086815250959 Phases=1 yearly=res_kw_128_pu

New Load.load_p1rlv1533_1 conn=wye bus1=p1rlv1533.1 kV=0.12 Vminpu=0.8 Vmaxpu=1.2 model=1 kW=3.789884331965197 kvar=1.0036576715582408 Phases=1 yearly=res_kw_670_pu

New Load.load_p1rlv1533_2 conn=wye bus1=p1rlv1533.2 kV=0.12 Vminpu=0.8 Vmaxpu=1.2 model=1 kW=3.789884331965197 kvar=1.0036576715582408 Phases=1 yearly=res_kw_670_pu

New Load.load_p1rlv1534_1 conn=wye bus1=p1rlv1534.1 kV=0.12 Vminpu=0.8 Vmaxpu=1.2 model=1 kW=5.436729579526792 kvar=1.2488470964899614 Phases=1 yearly=res_kw_454_pu

New Load.load_p1rlv1534_2 conn=wye bus1=p1rlv1534.2 kV=0.12 Vminpu=0.8 Vmaxpu=1.2 model=1 kW=5.436729579526792 kvar=1.2488470964899614 Phases=1 yearly=res_kw_454_pu

New Load.load_p1rlv1535_1 conn=wye bus1=p1rlv1535.1 kV=0.12 Vminpu=0.8 Vmaxpu=1.2 model=1 kW=6.520159505202592 kvar=1.1378587223610979 Phases=1 yearly=res_kw_879_pu

New Load.load_p1rlv1535_2 conn=wye bus1=p1rlv1535.2 kV=0.12 Vminpu=0.8 Vmaxpu=1.2 model=1 kW=6.520159505202592 kvar=1.1378587223610979 Phases=1 yearly=res_kw_879_pu

New Load.load_p1rlv1536_1 conn=wye bus1=p1rlv1536.1 kV=0.12 Vminpu=0.8 Vmaxpu=1.2 model=1 kW=4.712617748150944 kvar=1.0554842044862125 Phases=1 yearly=res_kw_828_pu

New Load.load_p1rlv1536_2 conn=wye bus1=p1rlv1536.2 kV=0.12 Vminpu=0.8 Vmaxpu=1.2 model=1 kW=4.712617748150944 kvar=1.0554842044862125 Phases=1 yearly=res_kw_828_pu

New Load.load_p1rlv1537_1 conn=wye bus1=p1rlv1537.1 kV=0.12 Vminpu=0.8 Vmaxpu=1.2 model=1 kW=5.991917116566147 kvar=1.6692124001399427 Phases=1 yearly=res_kw_314_pu

New Load.load_p1rlv1537_2 conn=wye bus1=p1rlv1537.2 kV=0.12 Vminpu=0.8 Vmaxpu=1.2 model=1 kW=5.991917116566147 kvar=1.6692124001399427 Phases=1 yearly=res_kw_314_pu

New Load.load_p1rlv1538_1 conn=wye bus1=p1rlv1538.1 kV=0.12 Vminpu=0.8 Vmaxpu=1.2 model=1 kW=2.6241521841182514 kvar=0.8429304779950015 Phases=1 yearly=res_kw_33_pu

New Load.load_p1rlv1538_2 conn=wye bus1=p1rlv1538.2 kV=0.12 Vminpu=0.8 Vmaxpu=1.2 model=1 kW=2.6241521841182514 kvar=0.8429304779950015 Phases=1 yearly=res_kw_33_pu

New Load.load_p1rlv1539_1 conn=wye bus1=p1rlv1539.1 kV=0.12 Vminpu=0.8 Vmaxpu=1.2 model=1 kW=3.3701610259235064 kvar=1.065454990641787 Phases=1 yearly=res_kw_1037_pu

New Load.load_p1rlv1539_2 conn=wye bus1=p1rlv1539.2 kV=0.12 Vminpu=0.8 Vmaxpu=1.2 model=1 kW=3.3701610259235064 kvar=1.065454990641787 Phases=1 yearly=res_kw_1037_pu

New Load.load_p1rlv1540_1 conn=wye bus1=p1rlv1540.1 kV=0.12 Vminpu=0.8 Vmaxpu=1.2 model=1 kW=7.088530083600876 kvar=2.6134476319600712 Phases=1 yearly=res_kw_267_pu

New Load.load_p1rlv1540_2 conn=wye bus1=p1rlv1540.2 kV=0.12 Vminpu=0.8 Vmaxpu=1.2 model=1 kW=7.088530083600876 kvar=2.6134476319600712 Phases=1 yearly=res_kw_267_pu

New Load.load_p1rlv1541_1 conn=wye bus1=p1rlv1541.1 kV=0.12 Vminpu=0.8 Vmaxpu=1.2 model=1 kW=5.436729579526792 kvar=1.2488470964899614 Phases=1 yearly=res_kw_454_pu

New Load.load_p1rlv1541_2 conn=wye bus1=p1rlv1541.2 kV=0.12 Vminpu=0.8 Vmaxpu=1.2 model=1 kW=5.436729579526792 kvar=1.2488470964899614 Phases=1 yearly=res_kw_454_pu

New Load.load_p1rlv1542_1 conn=wye bus1=p1rlv1542.1 kV=0.12 Vminpu=0.8 Vmaxpu=1.2 model=1 kW=2.40000228705824 kvar=1.0173787262529668 Phases=1 yearly=res_kw_1205_pu

New Load.load_p1rlv1542_2 conn=wye bus1=p1rlv1542.2 kV=0.12 Vminpu=0.8 Vmaxpu=1.2 model=1 kW=2.40000228705824 kvar=1.0173787262529668 Phases=1 yearly=res_kw_1205_pu

New Load.load_p1rlv1543_1 conn=wye bus1=p1rlv1543.1 kV=0.12 Vminpu=0.8 Vmaxpu=1.2 model=1 kW=2.8808589162778904 kvar=0.2835073949750637 Phases=1 yearly=res_kw_1036_pu

New Load.load_p1rlv1543_2 conn=wye bus1=p1rlv1543.2 kV=0.12 Vminpu=0.8 Vmaxpu=1.2 model=1 kW=2.8808589162778904 kvar=0.2835073949750637 Phases=1 yearly=res_kw_1036_pu

New Load.load_p1rlv1544_1 conn=wye bus1=p1rlv1544.1 kV=0.12 Vminpu=0.8 Vmaxpu=1.2 model=1 kW=3.8748715750127736 kvar=1.5614372175332516 Phases=1 yearly=res_kw_517_pu

New Load.load_p1rlv1544_2 conn=wye bus1=p1rlv1544.2 kV=0.12 Vminpu=0.8 Vmaxpu=1.2 model=1 kW=3.8748715750127736 kvar=1.5614372175332516 Phases=1 yearly=res_kw_517_pu

New Load.load_p1rlv1545_1 conn=wye bus1=p1rlv1545.1 kV=0.12 Vminpu=0.8 Vmaxpu=1.2 model=1 kW=5.991566549041883 kvar=1.4552695367795996 Phases=1 yearly=res_kw_1283_pu

New Load.load_p1rlv1545_2 conn=wye bus1=p1rlv1545.2 kV=0.12 Vminpu=0.8 Vmaxpu=1.2 model=1 kW=5.991566549041883 kvar=1.4552695367795996 Phases=1 yearly=res_kw_1283_pu

New Load.load_p1rlv1546_1 conn=wye bus1=p1rlv1546.1 kV=0.12 Vminpu=0.8 Vmaxpu=1.2 model=1 kW=7.088530083600876 kvar=2.6134476319600712 Phases=1 yearly=res_kw_267_pu

New Load.load_p1rlv1546_2 conn=wye bus1=p1rlv1546.2 kV=0.12 Vminpu=0.8 Vmaxpu=1.2 model=1 kW=7.088530083600876 kvar=2.6134476319600712 Phases=1 yearly=res_kw_267_pu

New Load.load_p1rlv1547_1 conn=wye bus1=p1rlv1547.1 kV=0.12 Vminpu=0.8 Vmaxpu=1.2 model=1 kW=2.9898249364160714 kvar=0.2983164502279761 Phases=1 yearly=res_kw_1070_pu

New Load.load_p1rlv1547_2 conn=wye bus1=p1rlv1547.2 kV=0.12 Vminpu=0.8 Vmaxpu=1.2 model=1 kW=2.9898249364160714 kvar=0.2983164502279761 Phases=1 yearly=res_kw_1070_pu

New Load.load_p1rlv1548_1 conn=wye bus1=p1rlv1548.1 kV=0.12 Vminpu=0.8 Vmaxpu=1.2 model=1 kW=2.1376631749204993 kvar=0.6218033466021168 Phases=1 yearly=res_kw_93_pu

New Load.load_p1rlv1548_2 conn=wye bus1=p1rlv1548.2 kV=0.12 Vminpu=0.8 Vmaxpu=1.2 model=1 kW=2.1376631749204993 kvar=0.6218033466021168 Phases=1 yearly=res_kw_93_pu

New Load.load_p1rlv1549_1 conn=wye bus1=p1rlv1549.1 kV=0.12 Vminpu=0.8 Vmaxpu=1.2 model=1 kW=5.5396149838334106 kvar=1.3495096504699533 Phases=1 yearly=res_kw_1273_pu

New Load.load_p1rlv1549_2 conn=wye bus1=p1rlv1549.2 kV=0.12 Vminpu=0.8 Vmaxpu=1.2 model=1 kW=5.5396149838334106 kvar=1.3495096504699533 Phases=1 yearly=res_kw_1273_pu

New Load.load_p1rlv1550_1 conn=wye bus1=p1rlv1550.1 kV=0.12 Vminpu=0.8 Vmaxpu=1.2 model=1 kW=3.8168884895345867 kvar=0.8723555075359155 Phases=1 yearly=res_kw_149_pu

New Load.load_p1rlv1550_2 conn=wye bus1=p1rlv1550.2 kV=0.12 Vminpu=0.8 Vmaxpu=1.2 model=1 kW=3.8168884895345867 kvar=0.8723555075359155 Phases=1 yearly=res_kw_149_pu

New Load.load_p1rlv1551_1 conn=wye bus1=p1rlv1551.1 kV=0.12 Vminpu=0.8 Vmaxpu=1.2 model=1 kW=4.459622160646972 kvar=0.4507102731724574 Phases=1 yearly=res_kw_658_pu

New Load.load_p1rlv1551_2 conn=wye bus1=p1rlv1551.2 kV=0.12 Vminpu=0.8 Vmaxpu=1.2 model=1 kW=4.459622160646972 kvar=0.4507102731724574 Phases=1 yearly=res_kw_658_pu

New Load.load_p1rlv1552_1 conn=wye bus1=p1rlv1552.1 kV=0.12 Vminpu=0.8 Vmaxpu=1.2 model=1 kW=2.6241521841182514 kvar=0.8429304779950015 Phases=1 yearly=res_kw_33_pu

New Load.load_p1rlv1552_2 conn=wye bus1=p1rlv1552.2 kV=0.12 Vminpu=0.8 Vmaxpu=1.2 model=1 kW=2.6241521841182514 kvar=0.8429304779950015 Phases=1 yearly=res_kw_33_pu

New Load.load_p1rlv1553_1 conn=wye bus1=p1rlv1553.1 kV=0.12 Vminpu=0.8 Vmaxpu=1.2 model=1 kW=3.469755020859998 kvar=0.8941520384931253 Phases=1 yearly=res_kw_4_pu

New Load.load_p1rlv1553_2 conn=wye bus1=p1rlv1553.2 kV=0.12 Vminpu=0.8 Vmaxpu=1.2 model=1 kW=3.469755020859998 kvar=0.8941520384931253 Phases=1 yearly=res_kw_4_pu

New Load.load_p1rlv1554_1 conn=wye bus1=p1rlv1554.1 kV=0.12 Vminpu=0.8 Vmaxpu=1.2 model=1 kW=3.2243036213034695 kvar=0.7302943484265993 Phases=1 yearly=res_kw_35_pu

New Load.load_p1rlv1554_2 conn=wye bus1=p1rlv1554.2 kV=0.12 Vminpu=0.8 Vmaxpu=1.2 model=1 kW=3.2243036213034695 kvar=0.7302943484265993 Phases=1 yearly=res_kw_35_pu

New Load.load_p1rlv1555_1 conn=wye bus1=p1rlv1555.1 kV=0.12 Vminpu=0.8 Vmaxpu=1.2 model=1 kW=2.605021030189827 kvar=1.0007509371876184 Phases=1 yearly=res_kw_24_pu

New Load.load_p1rlv1555_2 conn=wye bus1=p1rlv1555.2 kV=0.12 Vminpu=0.8 Vmaxpu=1.2 model=1 kW=2.605021030189827 kvar=1.0007509371876184 Phases=1 yearly=res_kw_24_pu

New Load.load_p1rlv1556_1 conn=wye bus1=p1rlv1556.1 kV=0.12 Vminpu=0.8 Vmaxpu=1.2 model=1 kW=3.6844020253442458 kvar=1.4451491397155931 Phases=1 yearly=res_kw_1258_pu

New Load.load_p1rlv1556_2 conn=wye bus1=p1rlv1556.2 kV=0.12 Vminpu=0.8 Vmaxpu=1.2 model=1 kW=3.6844020253442458 kvar=1.4451491397155931 Phases=1 yearly=res_kw_1258_pu

New Load.load_p1rlv1557_1 conn=wye bus1=p1rlv1557.1 kV=0.12 Vminpu=0.8 Vmaxpu=1.2 model=1 kW=4.900798918702608 kvar=1.063914780587451 Phases=1 yearly=res_kw_1193_pu

New Load.load_p1rlv1557_2 conn=wye bus1=p1rlv1557.2 kV=0.12 Vminpu=0.8 Vmaxpu=1.2 model=1 kW=4.900798918702608 kvar=1.063914780587451 Phases=1 yearly=res_kw_1193_pu

New Load.load_p1rlv1558_1 conn=wye bus1=p1rlv1558.1 kV=0.12 Vminpu=0.8 Vmaxpu=1.2 model=1 kW=4.16464238338737 kvar=0.9759614008792458 Phases=1 yearly=res_kw_968_pu

New Load.load_p1rlv1558_2 conn=wye bus1=p1rlv1558.2 kV=0.12 Vminpu=0.8 Vmaxpu=1.2 model=1 kW=4.16464238338737 kvar=0.9759614008792458 Phases=1 yearly=res_kw_968_pu

New Load.load_p1rlv1559_1 conn=wye bus1=p1rlv1559.1 kV=0.12 Vminpu=0.8 Vmaxpu=1.2 model=1 kW=3.8748715750127736 kvar=1.5614372175332516 Phases=1 yearly=res_kw_517_pu

New Load.load_p1rlv1559_2 conn=wye bus1=p1rlv1559.2 kV=0.12 Vminpu=0.8 Vmaxpu=1.2 model=1 kW=3.8748715750127736 kvar=1.5614372175332516 Phases=1 yearly=res_kw_517_pu

New Load.load_p1rlv1560_1 conn=wye bus1=p1rlv1560.1 kV=0.12 Vminpu=0.8 Vmaxpu=1.2 model=1 kW=2.5047232020051142 kvar=0.6800922265265169 Phases=1 yearly=res_kw_162_pu

New Load.load_p1rlv1560_2 conn=wye bus1=p1rlv1560.2 kV=0.12 Vminpu=0.8 Vmaxpu=1.2 model=1 kW=2.5047232020051142 kvar=0.6800922265265169 Phases=1 yearly=res_kw_162_pu

New Load.load_p1rlv1561_1 conn=wye bus1=p1rlv1561.1 kV=0.12 Vminpu=0.8 Vmaxpu=1.2 model=1 kW=3.8748715750127736 kvar=1.5614372175332516 Phases=1 yearly=res_kw_517_pu

New Load.load_p1rlv1561_2 conn=wye bus1=p1rlv1561.2 kV=0.12 Vminpu=0.8 Vmaxpu=1.2 model=1 kW=3.8748715750127736 kvar=1.5614372175332516 Phases=1 yearly=res_kw_517_pu

New Load.load_p1rlv1562_1 conn=wye bus1=p1rlv1562.1 kV=0.12 Vminpu=0.8 Vmaxpu=1.2 model=1 kW=3.8748715750127736 kvar=1.5614372175332516 Phases=1 yearly=res_kw_517_pu

New Load.load_p1rlv1562_2 conn=wye bus1=p1rlv1562.2 kV=0.12 Vminpu=0.8 Vmaxpu=1.2 model=1 kW=3.8748715750127736 kvar=1.5614372175332516 Phases=1 yearly=res_kw_517_pu

New Load.load_p1rlv1563_1 conn=wye bus1=p1rlv1563.1 kV=0.12 Vminpu=0.8 Vmaxpu=1.2 model=1 kW=2.4402285312138985 kvar=0.9342273883677934 Phases=1 yearly=res_kw_409_pu

New Load.load_p1rlv1563_2 conn=wye bus1=p1rlv1563.2 kV=0.12 Vminpu=0.8 Vmaxpu=1.2 model=1 kW=2.4402285312138985 kvar=0.9342273883677934 Phases=1 yearly=res_kw_409_pu

New Load.load_p1rlv1564_1 conn=wye bus1=p1rlv1564.1 kV=0.12 Vminpu=0.8 Vmaxpu=1.2 model=1 kW=5.436729579526792 kvar=1.2488470964899614 Phases=1 yearly=res_kw_454_pu

New Load.load_p1rlv1564_2 conn=wye bus1=p1rlv1564.2 kV=0.12 Vminpu=0.8 Vmaxpu=1.2 model=1 kW=5.436729579526792 kvar=1.2488470964899614 Phases=1 yearly=res_kw_454_pu

New Load.load_p1rlv1565_1 conn=wye bus1=p1rlv1565.1 kV=0.12 Vminpu=0.8 Vmaxpu=1.2 model=1 kW=5.436729579526792 kvar=1.2488470964899614 Phases=1 yearly=res_kw_454_pu

New Load.load_p1rlv1565_2 conn=wye bus1=p1rlv1565.2 kV=0.12 Vminpu=0.8 Vmaxpu=1.2 model=1 kW=5.436729579526792 kvar=1.2488470964899614 Phases=1 yearly=res_kw_454_pu

New Load.load_p1rlv1566_1 conn=wye bus1=p1rlv1566.1 kV=0.12 Vminpu=0.8 Vmaxpu=1.2 model=1 kW=5.436729579526792 kvar=1.2488470964899614 Phases=1 yearly=res_kw_454_pu

New Load.load_p1rlv1566_2 conn=wye bus1=p1rlv1566.2 kV=0.12 Vminpu=0.8 Vmaxpu=1.2 model=1 kW=5.436729579526792 kvar=1.2488470964899614 Phases=1 yearly=res_kw_454_pu

New Load.load_p1rlv1567_1 conn=wye bus1=p1rlv1567.1 kV=0.12 Vminpu=0.8 Vmaxpu=1.2 model=1 kW=3.8748715750127736 kvar=1.5614372175332516 Phases=1 yearly=res_kw_517_pu

New Load.load_p1rlv1567_2 conn=wye bus1=p1rlv1567.2 kV=0.12 Vminpu=0.8 Vmaxpu=1.2 model=1 kW=3.8748715750127736 kvar=1.5614372175332516 Phases=1 yearly=res_kw_517_pu

New Load.load_p1rlv1568_1 conn=wye bus1=p1rlv1568.1 kV=0.12 Vminpu=0.8 Vmaxpu=1.2 model=1 kW=7.04256695844029 kvar=1.659740351203588 Phases=1 yearly=res_kw_707_pu

New Load.load_p1rlv1568_2 conn=wye bus1=p1rlv1568.2 kV=0.12 Vminpu=0.8 Vmaxpu=1.2 model=1 kW=7.04256695844029 kvar=1.659740351203588 Phases=1 yearly=res_kw_707_pu

New Load.load_p1rlv1569_1 conn=wye bus1=p1rlv1569.1 kV=0.12 Vminpu=0.8 Vmaxpu=1.2 model=1 kW=2.40000228705824 kvar=1.0173787262529668 Phases=1 yearly=res_kw_1205_pu

New Load.load_p1rlv1569_2 conn=wye bus1=p1rlv1569.2 kV=0.12 Vminpu=0.8 Vmaxpu=1.2 model=1 kW=2.40000228705824 kvar=1.0173787262529668 Phases=1 yearly=res_kw_1205_pu

New Load.load_p1rlv1570_1 conn=wye bus1=p1rlv1570.1 kV=0.12 Vminpu=0.8 Vmaxpu=1.2 model=1 kW=8.188438755655785 kvar=1.0979918296007287 Phases=1 yearly=res_kw_450_pu

New Load.load_p1rlv1570_2 conn=wye bus1=p1rlv1570.2 kV=0.12 Vminpu=0.8 Vmaxpu=1.2 model=1 kW=8.188438755655785 kvar=1.0979918296007287 Phases=1 yearly=res_kw_450_pu

New Load.load_p1rlv1571_1 conn=wye bus1=p1rlv1571.1 kV=0.12 Vminpu=0.8 Vmaxpu=1.2 model=1 kW=2.40000228705824 kvar=1.0173787262529668 Phases=1 yearly=res_kw_1205_pu

New Load.load_p1rlv1571_2 conn=wye bus1=p1rlv1571.2 kV=0.12 Vminpu=0.8 Vmaxpu=1.2 model=1 kW=2.40000228705824 kvar=1.0173787262529668 Phases=1 yearly=res_kw_1205_pu

New Load.load_p1rlv1572_1 conn=wye bus1=p1rlv1572.1 kV=0.12 Vminpu=0.8 Vmaxpu=1.2 model=1 kW=4.7808294278431465 kvar=0.6499483324233782 Phases=1 yearly=res_kw_416_pu

New Load.load_p1rlv1572_2 conn=wye bus1=p1rlv1572.2 kV=0.12 Vminpu=0.8 Vmaxpu=1.2 model=1 kW=4.7808294278431465 kvar=0.6499483324233782 Phases=1 yearly=res_kw_416_pu

New Load.load_p1rlv1573_1 conn=wye bus1=p1rlv1573.1 kV=0.12 Vminpu=0.8 Vmaxpu=1.2 model=1 kW=3.4468581914223817 kvar=1.1411197390818253 Phases=1 yearly=res_kw_250_pu

New Load.load_p1rlv1573_2 conn=wye bus1=p1rlv1573.2 kV=0.12 Vminpu=0.8 Vmaxpu=1.2 model=1 kW=3.4468581914223817 kvar=1.1411197390818253 Phases=1 yearly=res_kw_250_pu

New Load.load_p1rlv1574_1 conn=wye bus1=p1rlv1574.1 kV=0.12 Vminpu=0.8 Vmaxpu=1.2 model=1 kW=9.666699253995569 kvar=2.090221480167897 Phases=1 yearly=res_kw_46_pu

New Load.load_p1rlv1574_2 conn=wye bus1=p1rlv1574.2 kV=0.12 Vminpu=0.8 Vmaxpu=1.2 model=1 kW=9.666699253995569 kvar=2.090221480167897 Phases=1 yearly=res_kw_46_pu

New Load.load_p1rlv1575_1 conn=wye bus1=p1rlv1575.1 kV=0.12 Vminpu=0.8 Vmaxpu=1.2 model=1 kW=1.07594874218897 kvar=0.4942830176942115 Phases=1 yearly=res_kw_366_pu

New Load.load_p1rlv1575_2 conn=wye bus1=p1rlv1575.2 kV=0.12 Vminpu=0.8 Vmaxpu=1.2 model=1 kW=1.07594874218897 kvar=0.4942830176942115 Phases=1 yearly=res_kw_366_pu

New Load.load_p1rlv1576_1 conn=wye bus1=p1rlv1576.1 kV=0.12 Vminpu=0.8 Vmaxpu=1.2 model=1 kW=6.168408370727534 kvar=1.492740670010399 Phases=1 yearly=res_kw_1162_pu

New Load.load_p1rlv1576_2 conn=wye bus1=p1rlv1576.2 kV=0.12 Vminpu=0.8 Vmaxpu=1.2 model=1 kW=6.168408370727534 kvar=1.492740670010399 Phases=1 yearly=res_kw_1162_pu

New Load.load_p1rlv1577_1 conn=wye bus1=p1rlv1577.1 kV=0.12 Vminpu=0.8 Vmaxpu=1.2 model=1 kW=3.6844020253442458 kvar=1.4451491397155931 Phases=1 yearly=res_kw_1258_pu

New Load.load_p1rlv1577_2 conn=wye bus1=p1rlv1577.2 kV=0.12 Vminpu=0.8 Vmaxpu=1.2 model=1 kW=3.6844020253442458 kvar=1.4451491397155931 Phases=1 yearly=res_kw_1258_pu

New Load.load_p1rlv1578_1 conn=wye bus1=p1rlv1578.1 kV=0.12 Vminpu=0.8 Vmaxpu=1.2 model=1 kW=1.07594874218897 kvar=0.4942830176942115 Phases=1 yearly=res_kw_366_pu

New Load.load_p1rlv1578_2 conn=wye bus1=p1rlv1578.2 kV=0.12 Vminpu=0.8 Vmaxpu=1.2 model=1 kW=1.07594874218897 kvar=0.4942830176942115 Phases=1 yearly=res_kw_366_pu

New Load.load_p1rlv1579_1 conn=wye bus1=p1rlv1579.1 kV=0.12 Vminpu=0.8 Vmaxpu=1.2 model=1 kW=3.3641909207712115 kvar=0.9284266244461494 Phases=1 yearly=res_kw_523_pu

New Load.load_p1rlv1579_2 conn=wye bus1=p1rlv1579.2 kV=0.12 Vminpu=0.8 Vmaxpu=1.2 model=1 kW=3.3641909207712115 kvar=0.9284266244461494 Phases=1 yearly=res_kw_523_pu

New Load.load_p1rlv1580_1 conn=wye bus1=p1rlv1580.1 kV=0.12 Vminpu=0.8 Vmaxpu=1.2 model=1 kW=3.8748715750127736 kvar=1.5614372175332516 Phases=1 yearly=res_kw_517_pu

New Load.load_p1rlv1580_2 conn=wye bus1=p1rlv1580.2 kV=0.12 Vminpu=0.8 Vmaxpu=1.2 model=1 kW=3.8748715750127736 kvar=1.5614372175332516 Phases=1 yearly=res_kw_517_pu

New Load.load_p1rlv1581_1 conn=wye bus1=p1rlv1581.1 kV=0.12 Vminpu=0.8 Vmaxpu=1.2 model=1 kW=2.916803644387601 kvar=0.11499518252231355 Phases=1 yearly=res_kw_1094_pu

New Load.load_p1rlv1581_2 conn=wye bus1=p1rlv1581.2 kV=0.12 Vminpu=0.8 Vmaxpu=1.2 model=1 kW=2.916803644387601 kvar=0.11499518252231355 Phases=1 yearly=res_kw_1094_pu

New Load.load_p1rlv1582_1 conn=wye bus1=p1rlv1582.1 kV=0.12 Vminpu=0.8 Vmaxpu=1.2 model=1 kW=1.07594874218897 kvar=0.4942830176942115 Phases=1 yearly=res_kw_366_pu

New Load.load_p1rlv1582_2 conn=wye bus1=p1rlv1582.2 kV=0.12 Vminpu=0.8 Vmaxpu=1.2 model=1 kW=1.07594874218897 kvar=0.4942830176942115 Phases=1 yearly=res_kw_366_pu

New Load.load_p1rlv1583 conn=wye bus1=p1rlv1583.1.2.3 kV=0.48 Vminpu=0.8 Vmaxpu=1.2 model=1 kW=51.99338843351495 kvar=2.319560551526166 Phases=3 yearly=com_kw_14574_pu

New Load.load_p1rlv1584_1 conn=wye bus1=p1rlv1584.1 kV=0.12 Vminpu=0.8 Vmaxpu=1.2 model=1 kW=3.8748715750127736 kvar=1.5614372175332516 Phases=1 yearly=res_kw_517_pu

New Load.load_p1rlv1584_2 conn=wye bus1=p1rlv1584.2 kV=0.12 Vminpu=0.8 Vmaxpu=1.2 model=1 kW=3.8748715750127736 kvar=1.5614372175332516 Phases=1 yearly=res_kw_517_pu

New Load.load_p1rlv1585_1 conn=wye bus1=p1rlv1585.1 kV=0.12 Vminpu=0.8 Vmaxpu=1.2 model=1 kW=6.294621884355657 kvar=1.2961288323966025 Phases=1 yearly=res_kw_689_pu

New Load.load_p1rlv1585_2 conn=wye bus1=p1rlv1585.2 kV=0.12 Vminpu=0.8 Vmaxpu=1.2 model=1 kW=6.294621884355657 kvar=1.2961288323966025 Phases=1 yearly=res_kw_689_pu

New Load.load_p1rlv1586_1 conn=wye bus1=p1rlv1586.1 kV=0.12 Vminpu=0.8 Vmaxpu=1.2 model=1 kW=2.40000228705824 kvar=1.0173787262529668 Phases=1 yearly=res_kw_1205_pu

New Load.load_p1rlv1586_2 conn=wye bus1=p1rlv1586.2 kV=0.12 Vminpu=0.8 Vmaxpu=1.2 model=1 kW=2.40000228705824 kvar=1.0173787262529668 Phases=1 yearly=res_kw_1205_pu

New Load.load_p1rlv1587_1 conn=wye bus1=p1rlv1587.1 kV=0.12 Vminpu=0.8 Vmaxpu=1.2 model=1 kW=4.792624300749482 kvar=1.1139407265067676 Phases=1 yearly=res_kw_898_pu

New Load.load_p1rlv1587_2 conn=wye bus1=p1rlv1587.2 kV=0.12 Vminpu=0.8 Vmaxpu=1.2 model=1 kW=4.792624300749482 kvar=1.1139407265067676 Phases=1 yearly=res_kw_898_pu

New Load.load_p1rlv1588_1 conn=wye bus1=p1rlv1588.1 kV=0.12 Vminpu=0.8 Vmaxpu=1.2 model=1 kW=4.565016690495302 kvar=0.6272532963790046 Phases=1 yearly=res_kw_502_pu

New Load.load_p1rlv1588_2 conn=wye bus1=p1rlv1588.2 kV=0.12 Vminpu=0.8 Vmaxpu=1.2 model=1 kW=4.565016690495302 kvar=0.6272532963790046 Phases=1 yearly=res_kw_502_pu

New Load.load_p1rlv1589_1 conn=wye bus1=p1rlv1589.1 kV=0.12 Vminpu=0.8 Vmaxpu=1.2 model=1 kW=3.3641909207712115 kvar=0.9284266244461494 Phases=1 yearly=res_kw_523_pu

New Load.load_p1rlv1589_2 conn=wye bus1=p1rlv1589.2 kV=0.12 Vminpu=0.8 Vmaxpu=1.2 model=1 kW=3.3641909207712115 kvar=0.9284266244461494 Phases=1 yearly=res_kw_523_pu

New Load.load_p1rlv1590 conn=wye bus1=p1rlv1590.1.2.3 kV=0.48 Vminpu=0.8 Vmaxpu=1.2 model=1 kW=35.575751352084666 kvar=8.679058106481836 Phases=3 yearly=com_kw_13354_pu

New Load.load_p1rlv1591_1 conn=wye bus1=p1rlv1591.1 kV=0.12 Vminpu=0.8 Vmaxpu=1.2 model=1 kW=4.792624300749482 kvar=1.1139407265067676 Phases=1 yearly=res_kw_898_pu

New Load.load_p1rlv1591_2 conn=wye bus1=p1rlv1591.2 kV=0.12 Vminpu=0.8 Vmaxpu=1.2 model=1 kW=4.792624300749482 kvar=1.1139407265067676 Phases=1 yearly=res_kw_898_pu

New Load.load_p1rlv1592_1 conn=wye bus1=p1rlv1592.1 kV=0.12 Vminpu=0.8 Vmaxpu=1.2 model=1 kW=5.436729579526792 kvar=1.2488470964899614 Phases=1 yearly=res_kw_454_pu

New Load.load_p1rlv1592_2 conn=wye bus1=p1rlv1592.2 kV=0.12 Vminpu=0.8 Vmaxpu=1.2 model=1 kW=5.436729579526792 kvar=1.2488470964899614 Phases=1 yearly=res_kw_454_pu

New Load.load_p1rlv1593_1 conn=wye bus1=p1rlv1593.1 kV=0.12 Vminpu=0.8 Vmaxpu=1.2 model=1 kW=2.40000228705824 kvar=1.0173787262529668 Phases=1 yearly=res_kw_1205_pu

New Load.load_p1rlv1593_2 conn=wye bus1=p1rlv1593.2 kV=0.12 Vminpu=0.8 Vmaxpu=1.2 model=1 kW=2.40000228705824 kvar=1.0173787262529668 Phases=1 yearly=res_kw_1205_pu

New Load.load_p1rlv1594_1 conn=wye bus1=p1rlv1594.1 kV=0.12 Vminpu=0.8 Vmaxpu=1.2 model=1 kW=5.286987923172412 kvar=0.912918656895422 Phases=1 yearly=res_kw_75_pu

New Load.load_p1rlv1594_2 conn=wye bus1=p1rlv1594.2 kV=0.12 Vminpu=0.8 Vmaxpu=1.2 model=1 kW=5.286987923172412 kvar=0.912918656895422 Phases=1 yearly=res_kw_75_pu

New Load.load_p1rlv1595_1 conn=wye bus1=p1rlv1595.1 kV=0.12 Vminpu=0.8 Vmaxpu=1.2 model=1 kW=4.729490236624554 kvar=0.8722842145726449 Phases=1 yearly=res_kw_624_pu

New Load.load_p1rlv1595_2 conn=wye bus1=p1rlv1595.2 kV=0.12 Vminpu=0.8 Vmaxpu=1.2 model=1 kW=4.729490236624554 kvar=0.8722842145726449 Phases=1 yearly=res_kw_624_pu

New Load.load_p1rlv1596_1 conn=wye bus1=p1rlv1596.1 kV=0.12 Vminpu=0.8 Vmaxpu=1.2 model=1 kW=4.647070020371418 kvar=0.3743476593427674 Phases=1 yearly=res_kw_26_pu

New Load.load_p1rlv1596_2 conn=wye bus1=p1rlv1596.2 kV=0.12 Vminpu=0.8 Vmaxpu=1.2 model=1 kW=4.647070020371418 kvar=0.3743476593427674 Phases=1 yearly=res_kw_26_pu

New Load.load_p1rlv1597_1 conn=wye bus1=p1rlv1597.1 kV=0.12 Vminpu=0.8 Vmaxpu=1.2 model=1 kW=6.141776037796917 kvar=0.8497294363427149 Phases=1 yearly=res_kw_923_pu

New Load.load_p1rlv1597_2 conn=wye bus1=p1rlv1597.2 kV=0.12 Vminpu=0.8 Vmaxpu=1.2 model=1 kW=6.141776037796917 kvar=0.8497294363427149 Phases=1 yearly=res_kw_923_pu

New Load.load_p1rlv1598_1 conn=wye bus1=p1rlv1598.1 kV=0.12 Vminpu=0.8 Vmaxpu=1.2 model=1 kW=4.6482452561006395 kvar=1.2631217280365494 Phases=1 yearly=res_kw_1209_pu

New Load.load_p1rlv1598_2 conn=wye bus1=p1rlv1598.2 kV=0.12 Vminpu=0.8 Vmaxpu=1.2 model=1 kW=4.6482452561006395 kvar=1.2631217280365494 Phases=1 yearly=res_kw_1209_pu

New Load.load_p1rlv1599_1 conn=wye bus1=p1rlv1599.1 kV=0.12 Vminpu=0.8 Vmaxpu=1.2 model=1 kW=2.0903747651596376 kvar=0.7957076388263523 Phases=1 yearly=res_kw_1223_pu

New Load.load_p1rlv1599_2 conn=wye bus1=p1rlv1599.2 kV=0.12 Vminpu=0.8 Vmaxpu=1.2 model=1 kW=2.0903747651596376 kvar=0.7957076388263523 Phases=1 yearly=res_kw_1223_pu

New Load.load_p1rlv1600_1 conn=wye bus1=p1rlv1600.1 kV=0.12 Vminpu=0.8 Vmaxpu=1.2 model=1 kW=2.0903747651596376 kvar=0.7957076388263523 Phases=1 yearly=res_kw_1223_pu

New Load.load_p1rlv1600_2 conn=wye bus1=p1rlv1600.2 kV=0.12 Vminpu=0.8 Vmaxpu=1.2 model=1 kW=2.0903747651596376 kvar=0.7957076388263523 Phases=1 yearly=res_kw_1223_pu

New Load.load_p1rlv1601_1 conn=wye bus1=p1rlv1601.1 kV=0.12 Vminpu=0.8 Vmaxpu=1.2 model=1 kW=1.07594874218897 kvar=0.4942830176942115 Phases=1 yearly=res_kw_366_pu

New Load.load_p1rlv1601_2 conn=wye bus1=p1rlv1601.2 kV=0.12 Vminpu=0.8 Vmaxpu=1.2 model=1 kW=1.07594874218897 kvar=0.4942830176942115 Phases=1 yearly=res_kw_366_pu

New Load.load_p1rlv1602_1 conn=wye bus1=p1rlv1602.1 kV=0.12 Vminpu=0.8 Vmaxpu=1.2 model=1 kW=4.646033942300283 kvar=1.0114780078518586 Phases=1 yearly=res_kw_436_pu

New Load.load_p1rlv1602_2 conn=wye bus1=p1rlv1602.2 kV=0.12 Vminpu=0.8 Vmaxpu=1.2 model=1 kW=4.646033942300283 kvar=1.0114780078518586 Phases=1 yearly=res_kw_436_pu

New Load.load_p1rlv1603_1 conn=wye bus1=p1rlv1603.1 kV=0.12 Vminpu=0.8 Vmaxpu=1.2 model=1 kW=1.7932717143582468 kvar=0.4137486634368157 Phases=1 yearly=res_kw_931_pu

New Load.load_p1rlv1603_2 conn=wye bus1=p1rlv1603.2 kV=0.12 Vminpu=0.8 Vmaxpu=1.2 model=1 kW=1.7932717143582468 kvar=0.4137486634368157 Phases=1 yearly=res_kw_931_pu

New Load.load_p1rlv1604_1 conn=wye bus1=p1rlv1604.1 kV=0.12 Vminpu=0.8 Vmaxpu=1.2 model=1 kW=3.3022463090013963 kvar=0.3558858552969609 Phases=1 yearly=res_kw_236_pu

New Load.load_p1rlv1604_2 conn=wye bus1=p1rlv1604.2 kV=0.12 Vminpu=0.8 Vmaxpu=1.2 model=1 kW=3.3022463090013963 kvar=0.3558858552969609 Phases=1 yearly=res_kw_236_pu

New Load.load_p1rlv1605_1 conn=wye bus1=p1rlv1605.1 kV=0.12 Vminpu=0.8 Vmaxpu=1.2 model=1 kW=5.436729579526792 kvar=1.2488470964899614 Phases=1 yearly=res_kw_454_pu

New Load.load_p1rlv1605_2 conn=wye bus1=p1rlv1605.2 kV=0.12 Vminpu=0.8 Vmaxpu=1.2 model=1 kW=5.436729579526792 kvar=1.2488470964899614 Phases=1 yearly=res_kw_454_pu

New Load.load_p1rlv1606_1 conn=wye bus1=p1rlv1606.1 kV=0.12 Vminpu=0.8 Vmaxpu=1.2 model=1 kW=3.8029744718879392 kvar=1.1462670306842289 Phases=1 yearly=res_kw_263_pu

New Load.load_p1rlv1606_2 conn=wye bus1=p1rlv1606.2 kV=0.12 Vminpu=0.8 Vmaxpu=1.2 model=1 kW=3.8029744718879392 kvar=1.1462670306842289 Phases=1 yearly=res_kw_263_pu

New Load.load_p1rlv1607_1 conn=wye bus1=p1rlv1607.1 kV=0.12 Vminpu=0.8 Vmaxpu=1.2 model=1 kW=2.5047232020051142 kvar=0.6800922265265169 Phases=1 yearly=res_kw_162_pu

New Load.load_p1rlv1607_2 conn=wye bus1=p1rlv1607.2 kV=0.12 Vminpu=0.8 Vmaxpu=1.2 model=1 kW=2.5047232020051142 kvar=0.6800922265265169 Phases=1 yearly=res_kw_162_pu

New Load.load_p1rlv1608_1 conn=wye bus1=p1rlv1608.1 kV=0.12 Vminpu=0.8 Vmaxpu=1.2 model=1 kW=4.760442075087689 kvar=1.0766161551105315 Phases=1 yearly=res_kw_807_pu

New Load.load_p1rlv1608_2 conn=wye bus1=p1rlv1608.2 kV=0.12 Vminpu=0.8 Vmaxpu=1.2 model=1 kW=4.760442075087689 kvar=1.0766161551105315 Phases=1 yearly=res_kw_807_pu

New Load.load_p1rlv1609_1 conn=wye bus1=p1rlv1609.1 kV=0.12 Vminpu=0.8 Vmaxpu=1.2 model=1 kW=2.6241521841182514 kvar=0.8429304779950015 Phases=1 yearly=res_kw_33_pu

New Load.load_p1rlv1609_2 conn=wye bus1=p1rlv1609.2 kV=0.12 Vminpu=0.8 Vmaxpu=1.2 model=1 kW=2.6241521841182514 kvar=0.8429304779950015 Phases=1 yearly=res_kw_33_pu

New Load.load_p1rlv1610_1 conn=wye bus1=p1rlv1610.1 kV=0.12 Vminpu=0.8 Vmaxpu=1.2 model=1 kW=5.952010513068915 kvar=1.0861641198514242 Phases=1 yearly=res_kw_1108_pu

New Load.load_p1rlv1610_2 conn=wye bus1=p1rlv1610.2 kV=0.12 Vminpu=0.8 Vmaxpu=1.2 model=1 kW=5.952010513068915 kvar=1.0861641198514242 Phases=1 yearly=res_kw_1108_pu

New Load.load_p1rlv1611_1 conn=wye bus1=p1rlv1611.1 kV=0.12 Vminpu=0.8 Vmaxpu=1.2 model=1 kW=8.252260942121131 kvar=1.0100409923226146 Phases=1 yearly=res_kw_401_pu

New Load.load_p1rlv1611_2 conn=wye bus1=p1rlv1611.2 kV=0.12 Vminpu=0.8 Vmaxpu=1.2 model=1 kW=8.252260942121131 kvar=1.0100409923226146 Phases=1 yearly=res_kw_401_pu

New Load.load_p1rlv1612_1 conn=wye bus1=p1rlv1612.1 kV=0.12 Vminpu=0.8 Vmaxpu=1.2 model=1 kW=1.07594874218897 kvar=0.4942830176942115 Phases=1 yearly=res_kw_366_pu

New Load.load_p1rlv1612_2 conn=wye bus1=p1rlv1612.2 kV=0.12 Vminpu=0.8 Vmaxpu=1.2 model=1 kW=1.07594874218897 kvar=0.4942830176942115 Phases=1 yearly=res_kw_366_pu

New Load.load_p1rlv1613_1 conn=wye bus1=p1rlv1613.1 kV=0.12 Vminpu=0.8 Vmaxpu=1.2 model=1 kW=4.817618468644212 kvar=1.1350426223715635 Phases=1 yearly=res_kw_843_pu

New Load.load_p1rlv1613_2 conn=wye bus1=p1rlv1613.2 kV=0.12 Vminpu=0.8 Vmaxpu=1.2 model=1 kW=4.817618468644212 kvar=1.1350426223715635 Phases=1 yearly=res_kw_843_pu

New Load.load_p1rlv1614_1 conn=wye bus1=p1rlv1614.1 kV=0.12 Vminpu=0.8 Vmaxpu=1.2 model=1 kW=2.6241521841182514 kvar=0.8429304779950015 Phases=1 yearly=res_kw_33_pu

New Load.load_p1rlv1614_2 conn=wye bus1=p1rlv1614.2 kV=0.12 Vminpu=0.8 Vmaxpu=1.2 model=1 kW=2.6241521841182514 kvar=0.8429304779950015 Phases=1 yearly=res_kw_33_pu

New Load.load_p1rlv1615_1 conn=wye bus1=p1rlv1615.1 kV=0.12 Vminpu=0.8 Vmaxpu=1.2 model=1 kW=1.07594874218897 kvar=0.4942830176942115 Phases=1 yearly=res_kw_366_pu

New Load.load_p1rlv1615_2 conn=wye bus1=p1rlv1615.2 kV=0.12 Vminpu=0.8 Vmaxpu=1.2 model=1 kW=1.07594874218897 kvar=0.4942830176942115 Phases=1 yearly=res_kw_366_pu

New Load.load_p1rlv1616_1 conn=wye bus1=p1rlv1616.1 kV=0.12 Vminpu=0.8 Vmaxpu=1.2 model=1 kW=10.375628907780863 kvar=4.616486224330442 Phases=1 yearly=res_kw_1267_pu

New Load.load_p1rlv1616_2 conn=wye bus1=p1rlv1616.2 kV=0.12 Vminpu=0.8 Vmaxpu=1.2 model=1 kW=10.375628907780863 kvar=4.616486224330442 Phases=1 yearly=res_kw_1267_pu

New Load.load_p1rlv1617_1 conn=wye bus1=p1rlv1617.1 kV=0.12 Vminpu=0.8 Vmaxpu=1.2 model=1 kW=2.916803644387601 kvar=0.11499518252231355 Phases=1 yearly=res_kw_1094_pu

New Load.load_p1rlv1617_2 conn=wye bus1=p1rlv1617.2 kV=0.12 Vminpu=0.8 Vmaxpu=1.2 model=1 kW=2.916803644387601 kvar=0.11499518252231355 Phases=1 yearly=res_kw_1094_pu

New Load.load_p1rlv1618_1 conn=wye bus1=p1rlv1618.1 kV=0.12 Vminpu=0.8 Vmaxpu=1.2 model=1 kW=4.666080754031652 kvar=0.9704814918535188 Phases=1 yearly=res_kw_280_pu

New Load.load_p1rlv1618_2 conn=wye bus1=p1rlv1618.2 kV=0.12 Vminpu=0.8 Vmaxpu=1.2 model=1 kW=4.666080754031652 kvar=0.9704814918535188 Phases=1 yearly=res_kw_280_pu

New Load.load_p1rlv1619_1 conn=wye bus1=p1rlv1619.1 kV=0.12 Vminpu=0.8 Vmaxpu=1.2 model=1 kW=6.294621884355657 kvar=1.2961288323966025 Phases=1 yearly=res_kw_689_pu

New Load.load_p1rlv1619_2 conn=wye bus1=p1rlv1619.2 kV=0.12 Vminpu=0.8 Vmaxpu=1.2 model=1 kW=6.294621884355657 kvar=1.2961288323966025 Phases=1 yearly=res_kw_689_pu

New Load.load_p1rlv1620_1 conn=wye bus1=p1rlv1620.1 kV=0.12 Vminpu=0.8 Vmaxpu=1.2 model=1 kW=9.341738473663403 kvar=2.018548151169967 Phases=1 yearly=res_kw_504_pu

New Load.load_p1rlv1620_2 conn=wye bus1=p1rlv1620.2 kV=0.12 Vminpu=0.8 Vmaxpu=1.2 model=1 kW=9.341738473663403 kvar=2.018548151169967 Phases=1 yearly=res_kw_504_pu

New Load.load_p1rlv1621_1 conn=wye bus1=p1rlv1621.1 kV=0.12 Vminpu=0.8 Vmaxpu=1.2 model=1 kW=2.6241521841182514 kvar=0.8429304779950015 Phases=1 yearly=res_kw_33_pu

New Load.load_p1rlv1621_2 conn=wye bus1=p1rlv1621.2 kV=0.12 Vminpu=0.8 Vmaxpu=1.2 model=1 kW=2.6241521841182514 kvar=0.8429304779950015 Phases=1 yearly=res_kw_33_pu

New Load.load_p1rlv1622_1 conn=wye bus1=p1rlv1622.1 kV=0.12 Vminpu=0.8 Vmaxpu=1.2 model=1 kW=7.088530083600876 kvar=2.6134476319600712 Phases=1 yearly=res_kw_267_pu

New Load.load_p1rlv1622_2 conn=wye bus1=p1rlv1622.2 kV=0.12 Vminpu=0.8 Vmaxpu=1.2 model=1 kW=7.088530083600876 kvar=2.6134476319600712 Phases=1 yearly=res_kw_267_pu

New Load.load_p1rlv1623_1 conn=wye bus1=p1rlv1623.1 kV=0.12 Vminpu=0.8 Vmaxpu=1.2 model=1 kW=4.295703971004243 kvar=1.5592692759891595 Phases=1 yearly=res_kw_282_pu

New Load.load_p1rlv1623_2 conn=wye bus1=p1rlv1623.2 kV=0.12 Vminpu=0.8 Vmaxpu=1.2 model=1 kW=4.295703971004243 kvar=1.5592692759891595 Phases=1 yearly=res_kw_282_pu

New Load.load_p1rlv1624_1 conn=wye bus1=p1rlv1624.1 kV=0.12 Vminpu=0.8 Vmaxpu=1.2 model=1 kW=3.6844020253442458 kvar=1.4451491397155931 Phases=1 yearly=res_kw_1258_pu

New Load.load_p1rlv1624_2 conn=wye bus1=p1rlv1624.2 kV=0.12 Vminpu=0.8 Vmaxpu=1.2 model=1 kW=3.6844020253442458 kvar=1.4451491397155931 Phases=1 yearly=res_kw_1258_pu

New Load.load_p1rlv1625_1 conn=wye bus1=p1rlv1625.1 kV=0.12 Vminpu=0.8 Vmaxpu=1.2 model=1 kW=5.593814709601456 kvar=0.9267363329025571 Phases=1 yearly=res_kw_561_pu

New Load.load_p1rlv1625_2 conn=wye bus1=p1rlv1625.2 kV=0.12 Vminpu=0.8 Vmaxpu=1.2 model=1 kW=5.593814709601456 kvar=0.9267363329025571 Phases=1 yearly=res_kw_561_pu

New Load.load_p1rlv1626_1 conn=wye bus1=p1rlv1626.1 kV=0.12 Vminpu=0.8 Vmaxpu=1.2 model=1 kW=10.375628907780863 kvar=4.616486224330442 Phases=1 yearly=res_kw_1267_pu

New Load.load_p1rlv1626_2 conn=wye bus1=p1rlv1626.2 kV=0.12 Vminpu=0.8 Vmaxpu=1.2 model=1 kW=10.375628907780863 kvar=4.616486224330442 Phases=1 yearly=res_kw_1267_pu

New Load.load_p1rlv1627_1 conn=wye bus1=p1rlv1627.1 kV=0.12 Vminpu=0.8 Vmaxpu=1.2 model=1 kW=6.727252203449795 kvar=1.9067277455995406 Phases=1 yearly=res_kw_822_pu

New Load.load_p1rlv1627_2 conn=wye bus1=p1rlv1627.2 kV=0.12 Vminpu=0.8 Vmaxpu=1.2 model=1 kW=6.727252203449795 kvar=1.9067277455995406 Phases=1 yearly=res_kw_822_pu

New Load.load_p1rlv1628_1 conn=wye bus1=p1rlv1628.1 kV=0.12 Vminpu=0.8 Vmaxpu=1.2 model=1 kW=3.469521951913567 kvar=0.9490620687569232 Phases=1 yearly=res_kw_825_pu

New Load.load_p1rlv1628_2 conn=wye bus1=p1rlv1628.2 kV=0.12 Vminpu=0.8 Vmaxpu=1.2 model=1 kW=3.469521951913567 kvar=0.9490620687569232 Phases=1 yearly=res_kw_825_pu

New Load.load_p1rlv1629_1 conn=wye bus1=p1rlv1629.1 kV=0.12 Vminpu=0.8 Vmaxpu=1.2 model=1 kW=4.8861141847383 kvar=1.2417687859549835 Phases=1 yearly=res_kw_549_pu

New Load.load_p1rlv1629_2 conn=wye bus1=p1rlv1629.2 kV=0.12 Vminpu=0.8 Vmaxpu=1.2 model=1 kW=4.8861141847383 kvar=1.2417687859549835 Phases=1 yearly=res_kw_549_pu

New Load.load_p1rlv1630_1 conn=wye bus1=p1rlv1630.1 kV=0.12 Vminpu=0.8 Vmaxpu=1.2 model=1 kW=5.991917116566147 kvar=1.6692124001399427 Phases=1 yearly=res_kw_314_pu

New Load.load_p1rlv1630_2 conn=wye bus1=p1rlv1630.2 kV=0.12 Vminpu=0.8 Vmaxpu=1.2 model=1 kW=5.991917116566147 kvar=1.6692124001399427 Phases=1 yearly=res_kw_314_pu

New Load.load_p1rlv1631_1 conn=wye bus1=p1rlv1631.1 kV=0.12 Vminpu=0.8 Vmaxpu=1.2 model=1 kW=2.40000228705824 kvar=1.0173787262529668 Phases=1 yearly=res_kw_1205_pu

New Load.load_p1rlv1631_2 conn=wye bus1=p1rlv1631.2 kV=0.12 Vminpu=0.8 Vmaxpu=1.2 model=1 kW=2.40000228705824 kvar=1.0173787262529668 Phases=1 yearly=res_kw_1205_pu

New Load.load_p1rlv1632_1 conn=wye bus1=p1rlv1632.1 kV=0.12 Vminpu=0.8 Vmaxpu=1.2 model=1 kW=6.364846522849057 kvar=1.3017627460069672 Phases=1 yearly=res_kw_947_pu

New Load.load_p1rlv1632_2 conn=wye bus1=p1rlv1632.2 kV=0.12 Vminpu=0.8 Vmaxpu=1.2 model=1 kW=6.364846522849057 kvar=1.3017627460069672 Phases=1 yearly=res_kw_947_pu

...